Version 4
SHEET 1 880 680
WIRE -96 144 -176 144
WIRE 480 160 384 160
WIRE -96 176 -176 176
FLAG -176 144 AND1
IOPIN -176 144 In
FLAG -176 176 AND2
IOPIN -176 176 In
FLAG 480 160 AND
IOPIN 480 160 Out
SYMBOL symbol_valve 256 224 R0
SYMATTR InstName X1
SYMBOL not -16 144 R0
SYMATTR InstName X2
SYMBOL not -16 176 R0
SYMATTR InstName X3
