Version 4
SHEET 1 2184 680
WIRE 1648 -448 944 -448
WIRE 2096 -432 1904 -432
WIRE 832 -416 640 -416
WIRE 1648 -416 832 -416
WIRE 640 -336 640 -416
WIRE 640 -336 464 -336
WIRE 640 -240 640 -336
WIRE 736 -240 640 -240
WIRE 1648 -240 736 -240
WIRE 2096 -224 1904 -224
WIRE 944 -208 944 -448
WIRE 1376 -208 944 -208
WIRE 1648 -208 1600 -208
WIRE 832 -48 832 -416
WIRE 1424 -48 832 -48
WIRE 2096 -32 1904 -32
WIRE 1648 -16 1008 -16
WIRE 944 0 944 -208
WIRE 944 0 640 0
WIRE 640 80 640 0
WIRE 640 80 480 80
WIRE 640 176 640 80
WIRE 1008 176 1008 -16
WIRE 1008 176 640 176
WIRE 1424 176 1008 176
WIRE 2096 192 1904 192
WIRE 736 208 736 -240
WIRE 1088 208 736 208
WIRE 1648 208 1312 208
FLAG 464 -336 S1
IOPIN 464 -336 In
FLAG 480 80 S2
IOPIN 480 80 In
FLAG 2096 -432 Y1
IOPIN 2096 -432 Out
FLAG 2096 -224 Y2
IOPIN 2096 -224 Out
FLAG 2096 -32 Y3
IOPIN 2096 -32 Out
FLAG 2096 192 Y4
IOPIN 2096 192 Out
SYMBOL symbol_valve 1776 -368 R0
SYMATTR InstName X1
SYMBOL symbol_valve 1776 -160 R0
SYMATTR InstName X2
SYMBOL symbol_valve 1776 32 R0
SYMATTR InstName X3
SYMBOL symbol_valve 1776 256 R0
SYMATTR InstName X4
SYMBOL not 1168 208 R0
SYMATTR InstName X5
SYMBOL not 1504 -48 R0
SYMATTR InstName X6
SYMBOL not 1504 176 R0
SYMATTR InstName X7
SYMBOL not 1456 -208 R0
WINDOW 39 0 0 Left 0
SYMATTR InstName X8
