Version 4
SHEET 1 1096 680
WIRE 208 -48 192 -48
WIRE 176 0 128 0
WIRE 176 32 176 0
WIRE 208 32 208 -48
WIRE 224 176 224 144
WIRE 464 176 224 176
WIRE 672 192 592 192
WIRE 464 208 32 208
WIRE 208 256 208 144
WIRE 464 256 208 256
WIRE 656 272 592 272
WIRE 672 272 672 192
WIRE 736 272 672 272
WIRE 464 288 32 288
WIRE 656 288 656 272
WIRE 736 288 656 288
WIRE 1024 304 944 304
WIRE 736 320 656 320
WIRE 176 336 176 144
WIRE 464 336 176 336
WIRE 736 336 704 336
WIRE 656 352 656 320
WIRE 656 352 592 352
WIRE 464 368 32 368
WIRE 160 416 160 144
WIRE 464 416 160 416
WIRE 704 432 704 336
WIRE 704 432 592 432
WIRE 464 448 32 448
FLAG 192 -48 S1
IOPIN 192 -48 In
FLAG 128 0 S2
IOPIN 128 0 In
FLAG 32 208 X1
IOPIN 32 208 In
FLAG 32 288 X2
IOPIN 32 288 In
FLAG 32 368 X3
IOPIN 32 368 In
FLAG 32 448 X4
IOPIN 32 448 In
FLAG 1024 304 Z
IOPIN 1024 304 Out
SYMBOL decoder 192 96 R90
SYMATTR InstName X1
SYMBOL and2 496 208 R0
SYMATTR InstName X2
SYMBOL and2 496 288 R0
SYMATTR InstName X3
SYMBOL and2 496 368 R0
SYMATTR InstName X4
SYMBOL and2 496 448 R0
SYMATTR InstName X5
SYMBOL or4 656 336 R0
SYMATTR InstName X6
