Version 4
SHEET 1 1324 680
WIRE 144 128 16 128
WIRE 144 160 16 160
WIRE 624 224 624 144
WIRE 688 224 624 224
WIRE 1232 240 1168 240
WIRE 688 256 624 256
WIRE 144 352 16 352
WIRE 624 368 624 256
WIRE 144 384 16 384
FLAG 16 128 OR1
IOPIN 16 128 In
FLAG 16 160 OR2
IOPIN 16 160 In
FLAG 16 352 OR3
IOPIN 16 352 In
FLAG 16 384 OR4
IOPIN 16 384 In
FLAG 1232 240 OR
IOPIN 1232 240 Out
SYMBOL symbol_valve 272 208 R0
SYMATTR InstName X1
SYMBOL symbol_valve 272 432 R0
SYMATTR InstName X2
SYMBOL not 480 144 R0
SYMATTR InstName X3
SYMBOL not 480 368 R0
SYMATTR InstName X4
SYMBOL symbol_valve 816 304 R0
SYMATTR InstName X5
SYMBOL not 1024 240 R0
SYMATTR InstName X6
