Version 4
SHEET 1 1104 680
WIRE 144 208 -336 208
WIRE 736 224 400 224
WIRE 144 240 -224 240
WIRE -336 304 -336 208
WIRE -224 304 -224 240
WIRE 736 352 736 224
WIRE -336 624 -336 384
WIRE -224 624 -224 384
WIRE 736 624 736 432
FLAG -336 624 0
FLAG -224 624 0
FLAG 736 624 0
DATAFLAG 480 224 ""
SYMBOL res 720 336 R0
SYMATTR InstName R1
SYMATTR Value 100k
SYMBOL voltage -336 288 R0
WINDOW 3 -287 121 Left 2
WINDOW 123 0 0 Left 0
WINDOW 39 0 0 Left 0
SYMATTR Value PULSE(0 1 0 10p 10p 8n 16n)
SYMATTR InstName V1
SYMBOL voltage -224 288 R0
WINDOW 123 0 0 Left 0
WINDOW 39 0 0 Left 0
SYMATTR InstName V2
SYMATTR Value PULSE(0 1 0 10p 10p 16n 32n)
SYMBOL symbol_valve 272 288 R0
SYMATTR InstName X1
TEXT -624 648 Left 2 !.tran 0 64n 0 1p
