Version 4
SHEET 1 880 680
WIRE 96 -576 48 -576
WIRE 224 -576 176 -576
WIRE 96 -432 80 -432
WIRE 208 -432 176 -432
WIRE 48 -416 48 -576
WIRE 80 -416 80 -432
WIRE 208 -384 208 -432
WIRE 224 -384 224 -576
WIRE 144 -336 -224 -336
WIRE 144 -320 -128 -320
WIRE 144 -304 -32 -304
WIRE 464 -304 288 -304
WIRE 144 -288 64 -288
WIRE 464 -272 464 -304
WIRE -224 -176 -224 -336
WIRE -128 -176 -128 -320
WIRE -32 -176 -32 -304
WIRE 64 -176 64 -288
WIRE 464 -176 464 -192
WIRE -224 -16 -224 -96
WIRE -128 -16 -128 -96
WIRE -32 -16 -32 -96
WIRE 64 -16 64 -96
FLAG 48 -416 0
FLAG 80 -416 0
FLAG 464 -176 0
FLAG 64 -16 0
FLAG -32 -16 0
FLAG -128 -16 0
FLAG -224 -16 0
SYMBOL multiplexer_4_in_1 256 -304 R0
SYMATTR InstName X1
SYMBOL voltage 192 -432 R90
WINDOW 0 -32 56 VBottom 2
WINDOW 3 -4 56 VBottom 2
WINDOW 123 0 0 Left 0
WINDOW 39 0 0 Left 0
SYMATTR InstName V1
SYMATTR Value 0
SYMBOL voltage 192 -576 R90
WINDOW 0 -32 56 VBottom 2
WINDOW 3 -4 56 VBottom 2
WINDOW 123 0 0 Left 0
WINDOW 39 0 0 Left 0
SYMATTR InstName V2
SYMATTR Value 0
SYMBOL res 448 -288 R0
SYMATTR InstName R1
SYMATTR Value 100k
SYMBOL voltage 64 -192 R0
WINDOW 3 62 50 Left 2
WINDOW 123 0 0 Left 0
WINDOW 39 0 0 Left 0
SYMATTR Value PULSE(0 1 0 10p 10p 20n 25n)
SYMATTR InstName V3
SYMBOL voltage -32 -192 R0
WINDOW 3 -163 134 Left 2
WINDOW 123 0 0 Left 0
WINDOW 39 0 0 Left 0
SYMATTR Value PULSE(0 1 0 10p 10p 15n 25n)
SYMATTR InstName V4
SYMBOL voltage -128 -192 R0
WINDOW 3 -199 -36 Left 2
WINDOW 123 0 0 Left 0
WINDOW 39 0 0 Left 0
SYMATTR Value PULSE(0 1 0 10p 10p 10n 25n)
SYMATTR InstName V5
SYMBOL voltage -224 -192 R0
WINDOW 3 -390 56 Left 2
WINDOW 123 0 0 Left 0
WINDOW 39 0 0 Left 0
SYMATTR Value PULSE(0 1 0 10p 10p 5n 25n)
SYMATTR InstName V6
TEXT -616 8 Left 2 !.tran 0 64n 0 1p
