Version 4
SHEET 1 880 680
WIRE 400 -48 352 -48
WIRE 592 -48 480 -48
WIRE 704 -48 656 -48
WIRE 352 0 352 -48
WIRE 352 0 288 0
WIRE 704 0 704 -48
WIRE 768 0 704 0
WIRE 352 48 352 0
WIRE 576 48 352 48
WIRE 704 48 704 0
WIRE 704 48 656 48
WIRE 288 176 288 0
WIRE 288 304 288 256
WIRE 768 304 768 0
WIRE 768 304 288 304
WIRE 288 320 288 304
FLAG 288 320 0
SYMBOL voltage 288 160 R0
WINDOW 123 0 0 Left 0
WINDOW 39 0 0 Left 0
SYMATTR InstName V1
SYMATTR Value SINE(0 12.727922 79.577 0 0 0 0)
SYMBOL ind 672 32 R90
WINDOW 0 5 56 VBottom 2
WINDOW 3 32 56 VTop 2
SYMATTR InstName L1
SYMATTR Value 2.68m
SYMBOL res 496 -64 R90
WINDOW 0 0 56 VBottom 2
WINDOW 3 32 56 VTop 2
SYMATTR InstName R1
SYMATTR Value 25
SYMBOL cap 656 -64 R90
WINDOW 0 0 32 VBottom 2
WINDOW 3 32 32 VTop 2
SYMATTR InstName C1
SYMATTR Value 46.188µ
TEXT 254 344 Left 2 !.tran 0 50ms 0 0.01m
