Version 4
SHEET 1 880 680
WIRE 96 96 -48 96
WIRE 336 96 176 96
WIRE 528 96 400 96
WIRE -48 240 -48 96
WIRE 528 240 528 96
WIRE -48 432 -48 320
WIRE 256 432 -48 432
WIRE 528 432 528 320
WIRE 528 432 256 432
WIRE 256 480 256 432
FLAG 256 480 0
SYMBOL res 192 80 R90
WINDOW 0 0 56 VBottom 2
WINDOW 3 32 56 VTop 2
SYMATTR InstName R1
SYMATTR Value 25
SYMBOL cap 400 80 R90
WINDOW 0 0 32 VBottom 2
WINDOW 3 32 32 VTop 2
SYMATTR InstName C1
SYMATTR Value 120µ
SYMBOL ind 512 224 R0
SYMATTR InstName L1
SYMATTR Value 0.3
SYMBOL voltage -48 224 R0
WINDOW 123 0 0 Left 0
WINDOW 39 0 0 Left 0
SYMATTR InstName V1
SYMATTR Value PULSE(-15 15 0.1m 0.001m 0.001m 90m 180m)
TEXT -82 504 Left 2 !.tran 0 180m 0 0.3m
