Version 4
SHEET 1 880 680
WIRE 192 144 32 144
WIRE 384 144 272 144
WIRE 32 288 32 144
WIRE 384 288 384 144
WIRE 32 464 32 368
WIRE 224 464 32 464
WIRE 384 464 384 352
WIRE 384 464 224 464
WIRE 224 496 224 464
FLAG 224 496 0
SYMBOL res 288 128 R90
WINDOW 0 0 56 VBottom 2
WINDOW 3 32 56 VTop 2
SYMATTR InstName R1
SYMATTR Value 50
SYMBOL voltage 32 272 R0
WINDOW 123 0 0 Left 0
WINDOW 39 0 0 Left 0
SYMATTR InstName V1
SYMATTR Value PULSE(15 -15 0.1m 0.001m 0.001m 30m 60m)
SYMBOL cap 368 288 R0
SYMATTR InstName C1
SYMATTR Value 120µ
TEXT 0 520 Left 2 !.tran 0 60m 0 0.3m
